# generated using pymatgen
data_WS2
_symmetry_space_group_name_H-M   'P 1'
_cell_length_a   8.33411663
_cell_length_b   8.33411663
_cell_length_c   25.00000000
_cell_angle_alpha   90.00000000
_cell_angle_beta   90.00000000
_cell_angle_gamma   60.00000000
_symmetry_Int_Tables_number   1
_chemical_formula_structural   WS2
_chemical_formula_sum   'W7 S14'
_cell_volume   1503.79898707
_cell_formula_units_Z   7
loop_
 _symmetry_equiv_pos_site_id
 _symmetry_equiv_pos_as_xyz
  1  'x, y, z'
loop_
 _atom_site_type_symbol
 _atom_site_label
 _atom_site_symmetry_multiplicity
 _atom_site_fract_x
 _atom_site_fract_y
 _atom_site_fract_z
 _atom_site_occupancy
  W  W0  1  0.38095238  0.52380952  0.50000000  1
  W  W1  1  0.66666667  0.66666667  0.50000000  1
  W  W2  1  0.95238095  0.80952381  0.50000000  1
  W  W3  1  0.23809524  0.95238095  0.50000000  1
  W  W4  1  0.52380952  0.09523810  0.50000000  1
  W  W5  1  0.80952381  0.23809524  0.50000000  1
  W  W6  1  0.09523810  0.38095238  0.50000000  1
  S  S7  1  0.61904762  0.47619048  0.43600000  1
  S  S8  1  0.90476190  0.61904762  0.43600000  1
  S  S9  1  0.19047619  0.76190476  0.43600000  1
  S  S10  1  0.47619048  0.90476190  0.43600000  1
  S  S11  1  0.76190476  0.04761905  0.43600000  1
  S  S12  1  0.04761905  0.19047619  0.43600000  1
  S  S13  1  0.33333333  0.33333333  0.43600000  1
  S  S14  1  0.61904762  0.47619048  0.56400000  1
  S  S15  1  0.90476190  0.61904762  0.56400000  1
  S  S16  1  0.19047619  0.76190476  0.56400000  1
  S  S17  1  0.47619048  0.90476190  0.56400000  1
  S  S18  1  0.76190476  0.04761905  0.56400000  1
  S  S19  1  0.04761905  0.19047619  0.56400000  1
  S  S20  1  0.33333333  0.33333333  0.56400000  1
